CC[C@H]1C(=O)[C@@H](NC(=O)c2ccc(C(=O)[O-])c(N)c2)[C@@H](O)CC1C(=O)c1ccc[nH]c1=O
     RDKit          3D

 32 34  0  0  0  0  0  0  0  0999 V2000
   11.7651   10.2084   -3.6172 O   0  0  0  0  0  0  0  0  0  0  0  0
   11.7651    9.1084   -3.6172 C   0  0  0  0  0  0  0  0  0  0  0  0
   11.6651    8.4084   -2.4172 N   0  0  0  0  0  0  0  0  0  0  0  0
   11.6651    7.0084   -2.3172 C   0  0  0  0  0  0  0  0  0  0  0  0
   11.7651    6.3084   -3.4172 C   0  0  0  0  0  0  0  0  0  0  0  0
   11.8651    6.9084   -4.7172 C   0  0  0  0  0  0  0  0  0  0  0  0
   11.8651    8.3084   -4.8172 C   0  0  0  0  0  0  0  0  0  0  0  0
   11.9651    9.0084   -6.2172 C   0  0  0  0  0  0  0  0  0  0  0  0
   12.3651   10.2084   -6.3172 O   0  0  0  0  0  0  0  0  0  0  0  0
   11.9651    8.1084   -7.4172 C   0  0  2  0  0  0  0  0  0  0  0  0
   12.9651    8.5084   -8.4172 C   0  0  0  0  0  0  0  0  0  0  0  0
   12.8651    7.6084   -9.7172 C   0  0  1  0  0  0  0  0  0  0  0  0
   11.4651    7.7084  -10.3172 C   0  0  2  0  0  0  0  0  0  0  0  0
   10.3651    7.4084   -9.2172 C   0  0  0  0  0  0  0  0  0  0  0  0
    9.2651    7.4084   -9.5172 O   0  0  0  0  0  0  0  0  0  0  0  0
   10.4651    8.2084   -7.9172 C   0  0  1  0  0  0  0  0  0  0  0  0
    9.3651    7.8084   -6.9172 C   0  0  0  0  0  0  0  0  0  0  0  0
    9.4651    6.3084   -6.5172 C   0  0  0  0  0  0  0  0  0  0  0  0
   11.2651    6.7084  -11.3172 N   0  0  0  0  0  0  0  0  0  0  0  0
   11.2651    7.0084  -12.6172 C   0  0  0  0  0  0  0  0  0  0  0  0
   11.3651    8.1084  -13.0172 O   0  0  0  0  0  0  0  0  0  0  0  0
   11.0651    5.9084  -13.5172 C   0  0  0  0  0  0  0  0  0  0  0  0
   11.5651    5.9084  -14.7172 C   0  0  0  0  0  0  0  0  0  0  0  0
   11.3651    4.8084  -15.6172 C   0  0  0  0  0  0  0  0  0  0  0  0
   10.5651    3.7084  -15.2172 C   0  0  0  0  0  0  0  0  0  0  0  0
    9.9651    3.7084  -13.9172 C   0  0  0  0  0  0  0  0  0  0  0  0
   10.1651    4.8084  -13.1172 C   0  0  0  0  0  0  0  0  0  0  0  0
    9.2651    2.7084  -13.5172 N   0  0  0  0  0  0  0  0  0  0  0  0
   10.3651    2.6084  -16.1172 C   0  0  0  0  0  0  0  0  0  0  0  0
    9.6651    1.6084  -15.8172 O   0  0  0  0  0  0  0  0  0  0  0  0
   10.9651    2.6084  -17.2172 O   0  0  0  0  0  1  0  0  0  0  0  0
   13.8651    8.0084  -10.6172 O   0  0  0  0  0  0  0  0  0  0  0  0
  1  2  2  0
  2  3  1  0
  3  4  1  0
  4  5  2  0
  5  6  1  0
  6  7  2  0
  7  2  1  0
  8  9  2  0
  7  8  1  0
 10 11  1  0
 11 12  1  0
 12 13  1  0
 13 14  1  0
 14 15  2  0
 14 16  1  0
 16 10  1  0
 10  8  1  1
 17 18  1  0
 16 17  1  1
 19 20  1  0
 20 21  2  0
 13 19  1  6
 22 23  2  0
 23 24  1  0
 24 25  2  0
 25 26  1  0
 26 27  2  0
 27 22  1  0
 20 22  1  0
 26 28  1  0
 29 30  2  0
 29 31  1  0
 25 29  1  0
 12 32  1  6
M  CHG  1  31  -1
M  END
$$$$
COc1nc(OCC2CCCCC2)ncc1-c1cc(C(=O)N[C@@H](C)Cc2cnc(N)c(C)c2)cnc1OCC(N)=O
     RDKit          3D

 41 44  0  0  0  0  0  0  0  0999 V2000
   11.2651   10.0084   -3.6172 N   0  0  0  0  0  0  0  0  0  0  0  0
   11.2651    9.6084   -4.9172 C   0  0  0  0  0  0  0  0  0  0  0  0
   11.7651    8.3084   -5.3172 C   0  0  0  0  0  0  0  0  0  0  0  0
   12.2651    7.5084   -4.3172 C   0  0  0  0  0  0  0  0  0  0  0  0
   12.2651    7.9084   -3.0172 C   0  0  0  0  0  0  0  0  0  0  0  0
   11.7651    9.2084   -2.6172 C   0  0  0  0  0  0  0  0  0  0  0  0
   11.7651    9.6084   -1.3172 N   0  0  0  0  0  0  0  0  0  0  0  0
   12.7651    7.0084   -1.9172 C   0  0  0  0  0  0  0  0  0  0  0  0
   11.7651    7.9084   -6.7172 C   0  0  0  0  0  0  0  0  0  0  0  0
   10.3651    7.7084   -7.3172 C   0  0  2  0  0  0  0  0  0  0  0  0
    9.5651    6.7084   -6.5172 C   0  0  0  0  0  0  0  0  0  0  0  0
   10.4651    7.4084   -8.7172 N   0  0  0  0  0  0  0  0  0  0  0  0
   10.9651    8.2084   -9.6172 C   0  0  0  0  0  0  0  0  0  0  0  0
   11.3651    9.3084   -9.4172 O   0  0  0  0  0  0  0  0  0  0  0  0
   10.9651    7.6084  -11.0172 C   0  0  0  0  0  0  0  0  0  0  0  0
   11.9651    8.0084  -11.9172 C   0  0  0  0  0  0  0  0  0  0  0  0
   12.0651    7.5084  -13.1172 N   0  0  0  0  0  0  0  0  0  0  0  0
   11.1651    6.6084  -13.5172 C   0  0  0  0  0  0  0  0  0  0  0  0
   10.0651    6.2084  -12.7172 C   0  0  0  0  0  0  0  0  0  0  0  0
    9.9651    6.8084  -11.4172 C   0  0  0  0  0  0  0  0  0  0  0  0
    9.0651    5.2084  -13.1172 C   0  0  0  0  0  0  0  0  0  0  0  0
    7.7651    5.5084  -13.2172 C   0  0  0  0  0  0  0  0  0  0  0  0
    6.8651    4.6084  -13.6172 N   0  0  0  0  0  0  0  0  0  0  0  0
    7.2651    3.3084  -13.9172 C   0  0  0  0  0  0  0  0  0  0  0  0
    8.5651    3.0084  -13.8172 N   0  0  0  0  0  0  0  0  0  0  0  0
    9.4651    3.9084  -13.4172 C   0  0  0  0  0  0  0  0  0  0  0  0
   10.7651    3.5084  -13.3172 O   0  0  0  0  0  0  0  0  0  0  0  0
   11.2651    2.6084  -14.1172 C   0  0  0  0  0  0  0  0  0  0  0  0
    6.3651    2.4084  -14.3172 O   0  0  0  0  0  0  0  0  0  0  0  0
    6.5651    1.1084  -14.2172 C   0  0  0  0  0  0  0  0  0  0  0  0
    5.6651    0.4084  -15.1172 C   0  0  0  0  0  0  0  0  0  0  0  0
    5.3651    1.2084  -16.3172 C   0  0  0  0  0  0  0  0  0  0  0  0
    4.3651    0.6084  -17.1172 C   0  0  0  0  0  0  0  0  0  0  0  0
    4.5651   -0.7916  -17.4172 C   0  0  0  0  0  0  0  0  0  0  0  0
    4.8651   -1.6916  -16.2172 C   0  0  0  0  0  0  0  0  0  0  0  0
    5.8651   -0.9916  -15.2172 C   0  0  0  0  0  0  0  0  0  0  0  0
   11.2651    6.0084  -14.8172 O   0  0  0  0  0  0  0  0  0  0  0  0
   12.4651    6.2084  -15.5172 C   0  0  0  0  0  0  0  0  0  0  0  0
   12.5651    5.1084  -16.6172 C   0  0  0  0  0  0  0  0  0  0  0  0
   11.3651    4.5084  -16.9172 N   0  0  0  0  0  0  0  0  0  0  0  0
   13.5651    4.6084  -16.8172 O   0  0  0  0  0  0  0  0  0  0  0  0
  1  2  2  0
  2  3  1  0
  3  4  2  0
  4  5  1  0
  5  6  2  0
  6  1  1  0
  6  7  1  0
  5  8  1  0
  9 10  1  0
 10 11  1  1
 10 12  1  0
 12 13  1  0
 13 14  2  0
  3  9  1  0
 15 16  2  0
 16 17  1  0
 17 18  2  0
 18 19  1  0
 19 20  2  0
 20 15  1  0
 13 15  1  0
 21 22  2  0
 22 23  1  0
 23 24  2  0
 24 25  1  0
 25 26  2  0
 26 21  1  0
 19 21  1  0
 27 28  1  0
 26 27  1  0
 29 30  1  0
 24 29  1  0
 31 32  1  0
 32 33  1  0
 33 34  1  0
 34 35  1  0
 35 36  1  0
 36 31  1  0
 30 31  1  0
 37 38  1  0
 38 39  1  0
 39 40  1  0
 39 41  2  0
 18 37  1  0
M  END
$$$$
CC(=O)Nc1cc(S(=O)(=O)N[C@H]2CC(C[C@H](O)[C@@H](C[C@H]3CCN(C)C3=O)NC=O)[C@H](O)C2)ccc1C
     RDKit          3D

 36 38  0  0  0  0  0  0  0  0999 V2000
   11.7651   10.2084   -3.6172 O   0  0  0  0  0  0  0  0  0  0  0  0
   12.0651    9.1084   -3.6172 C   0  0  0  0  0  0  0  0  0  0  0  0
   12.4651    8.4084   -2.5172 N   0  0  0  0  0  0  0  0  0  0  0  0
   12.7651    7.0084   -2.8172 C   0  0  0  0  0  0  0  0  0  0  0  0
   12.4651    6.8084   -4.2172 C   0  0  0  0  0  0  0  0  0  0  0  0
   11.7651    8.1084   -4.7172 C   0  0  1  0  0  0  0  0  0  0  0  0
   10.6651    7.9084   -5.7172 C   0  0  0  0  0  0  0  0  0  0  0  0
   11.1651    7.7084   -7.1172 C   0  0  1  0  0  0  0  0  0  0  0  0
   11.6651    6.3084   -7.2172 N   0  0  0  0  0  0  0  0  0  0  0  0
   11.0651    5.5084   -8.1172 C   0  0  0  0  0  0  0  0  0  0  0  0
   10.1651    5.8084   -8.8172 O   0  0  0  0  0  0  0  0  0  0  0  0
   10.1651    7.2084   -8.0172 C   0  0  1  0  0  0  0  0  0  0  0  0
    8.9651    8.0084   -7.9172 O   0  0  0  0  0  0  0  0  0  0  0  0
   10.6651    7.2084   -9.4172 C   0  0  0  0  0  0  0  0  0  0  0  0
    9.7651    6.7084  -10.4172 C   0  0  2  0  0  0  0  0  0  0  0  0
    9.4651    5.2084  -10.2172 C   0  0  0  0  0  0  0  0  0  0  0  0
    9.4651    4.6084  -11.6172 C   0  0  2  0  0  0  0  0  0  0  0  0
    9.4651    5.8084  -12.5172 C   0  0  0  0  0  0  0  0  0  0  0  0
   10.1651    6.9084  -11.8172 C   0  0  1  0  0  0  0  0  0  0  0  0
    9.7651    8.2084  -12.3172 O   0  0  0  0  0  0  0  0  0  0  0  0
    8.0651    4.0084  -12.0172 N   0  0  0  0  0  0  0  0  0  0  0  0
    7.7651    4.3084  -13.5172 S   0  0  0  0  0  0  0  0  0  0  0  0
    8.1651    5.7084  -13.8172 O   0  0  0  0  0  0  0  0  0  0  0  0
    6.3651    3.9084  -13.8172 O   0  0  0  0  0  0  0  0  0  0  0  0
    7.8651    2.9084  -14.4172 C   0  0  0  0  0  0  0  0  0  0  0  0
    8.9651    2.7084  -15.2172 C   0  0  0  0  0  0  0  0  0  0  0  0
    9.1651    1.5084  -16.0172 C   0  0  0  0  0  0  0  0  0  0  0  0
    8.1651    0.5084  -15.9172 C   0  0  0  0  0  0  0  0  0  0  0  0
    7.0651    0.7084  -15.1172 C   0  0  0  0  0  0  0  0  0  0  0  0
    6.8651    1.9084  -14.3172 C   0  0  0  0  0  0  0  0  0  0  0  0
    6.0651   -0.2916  -15.0172 N   0  0  0  0  0  0  0  0  0  0  0  0
    4.7651   -0.0916  -14.7172 C   0  0  0  0  0  0  0  0  0  0  0  0
    3.9651   -1.3916  -14.7172 C   0  0  0  0  0  0  0  0  0  0  0  0
    4.1651    1.0084  -14.4172 O   0  0  0  0  0  0  0  0  0  0  0  0
    8.3651   -0.6916  -16.7172 C   0  0  0  0  0  0  0  0  0  0  0  0
   12.5651    8.9084   -1.1172 C   0  0  0  0  0  0  0  0  0  0  0  0
  1  2  2  0
  2  3  1  0
  3  4  1  0
  4  5  1  0
  5  6  1  0
  6  2  1  0
  8  7  1  1
  8  9  1  0
  9 10  1  0
 10 11  2  0
  8 12  1  0
 12 13  1  6
 12 14  1  0
  6  7  1  1
 15 16  1  0
 16 17  1  0
 17 18  1  0
 18 19  1  0
 19 15  1  0
 15 14  1  1
 19 20  1  6
 21 22  1  0
 22 23  2  0
 22 24  2  0
 17 21  1  6
 25 26  2  0
 26 27  1  0
 27 28  2  0
 28 29  1  0
 29 30  2  0
 30 25  1  0
 22 25  1  0
 31 32  1  0
 32 33  1  0
 32 34  2  0
 29 31  1  0
 28 35  1  0
  3 36  1  0
M  END
$$$$
