
     RDKit          3D

 46 57  0  0  0  0  0  0  0  0999 V2000
    8.0806    9.0240  -12.7589 C   0  0  0  0  0  0  0  0  0  0  0  0
    8.6514    7.8645  -12.2948 C   0  0  0  0  0  0  0  0  0  0  0  0
    9.9575    7.9974  -11.8426 C   0  0  0  0  0  0  0  0  0  0  0  0
   10.7657    6.8667  -11.6050 C   0  0  1  0  0  0  0  0  0  0  0  0
   10.7682    5.9590  -12.8271 C   0  0  0  0  0  0  0  0  0  0  0  0
   12.1553    7.3846  -11.2315 C   0  0  0  0  0  0  0  0  0  0  0  0
    8.0676    6.6451  -12.2974 C   0  0  0  0  0  0  0  0  0  0  0  0
   10.1892    6.1240  -10.3860 C   0  0  0  0  0  0  0  0  0  0  0  0
   11.8375    5.4373  -13.3240 O   0  0  0  0  0  0  0  0  0  0  0  0
    8.6785    5.4761  -13.0273 C   0  0  1  0  0  0  0  0  0  0  0  0
    9.1969    5.2405  -10.4969 C   0  0  2  0  0  0  0  0  0  0  0  0
    7.2213    6.2210  -11.3074 C   0  0  2  0  0  0  0  0  0  0  0  0
   12.5590    7.6872   -9.9896 C   0  0  0  0  0  0  0  0  0  0  0  0
    9.7633    5.0333  -12.9720 C   0  0  1  0  0  0  0  0  0  0  0  0
   10.0661    4.0167  -14.0373 N   0  0  0  0  0  0  0  0  0  0  0  0
   13.6906    8.3004   -9.6233 O   0  0  0  0  0  0  0  0  0  0  0  0
    7.6357    4.5123  -12.6317 C   0  0  2  0  0  0  0  0  0  0  0  0
    6.8831    4.9171  -11.7031 C   0  0  2  0  0  0  0  0  0  0  0  0
   10.5937    6.6967   -9.1779 C   0  0  0  0  0  0  0  0  0  0  0  0
    9.5087    4.3263  -11.6925 C   0  0  2  0  0  0  0  0  0  0  0  0
   11.6359    7.4449   -8.9125 C   0  0  0  0  0  0  0  0  0  0  0  0
   11.9716    7.9159   -7.6200 C   0  0  0  0  0  0  0  0  0  0  0  0
    8.4648    3.6122  -12.2840 C   0  0  1  0  0  0  0  0  0  0  0  0
    7.9253    2.8004  -11.3926 C   0  0  0  0  0  0  0  0  0  0  0  0
    5.6047    4.5059  -11.7589 C   0  0  0  0  0  0  0  0  0  0  0  0
    7.6606    4.1297  -10.5699 C   0  0  0  0  0  0  0  0  0  0  0  0
   10.9559    7.6849   -6.6057 C   0  0  0  0  0  0  0  0  0  0  0  0
    8.0094    4.5092   -9.5664 C   0  0  0  0  0  0  0  0  0  0  0  0
    8.3033    4.0627   -8.4980 C   0  0  0  0  0  0  0  0  0  0  0  0
    6.3587    7.1012  -11.0392 O   0  0  0  0  0  0  0  0  0  0  0  0
   11.0186    3.9598  -14.9226 C   0  0  0  0  0  0  0  0  0  0  0  0
    8.1758    5.8633  -10.2511 C   0  0  1  0  0  0  0  0  0  0  0  0
   11.4648    2.7104  -15.2650 O   0  0  0  0  0  0  0  0  0  0  0  0
    9.9512    6.8220   -6.8436 C   0  0  0  0  0  0  0  0  0  0  0  0
    9.6899    6.3705   -8.1082 C   0  0  2  0  0  0  0  0  0  0  0  0
   11.2597    8.2901   -5.2396 C   0  0  0  0  0  0  0  0  0  0  0  0
   10.9483    4.9354  -15.8312 C   0  0  0  0  0  0  0  0  0  0  0  0
    9.2428    4.9682   -7.8294 C   0  0  0  0  0  0  0  0  0  0  0  0
   11.9211    7.5870   -4.3303 C   0  0  0  0  0  0  0  0  0  0  0  0
    9.5730    2.7786  -13.2723 C   0  0  0  0  0  0  0  0  0  0  0  0
   12.4043    8.2063   -3.0501 C   0  0  0  0  0  0  0  0  0  0  0  0
   12.0960    6.1974   -4.3938 C   0  0  0  0  0  0  0  0  0  0  0  0
   10.8961    9.6344   -5.0170 C   0  0  0  0  0  0  0  0  0  0  0  0
   13.0542    7.4313   -2.1065 C   0  0  0  0  0  0  0  0  0  0  0  0
   12.6820    5.5214   -3.3292 C   0  0  0  0  0  0  0  0  0  0  0  0
   13.1356    6.1524   -2.2511 C   0  0  0  0  0  0  0  0  0  0  0  0
  1  2  1  0
  2  3  1  0
  2  7  2  0
  4  3  1  6
  4  5  1  0
  4  6  1  0
  4  8  1  0
  5  9  2  0
  6 13  1  0
  7 12  1  0
  8 19  2  0
 10  7  1  1
 10 14  1  0
 17 10  1  1
 11  8  1  6
 20 11  1  1
 11 32  1  0
 12 18  1  0
 12 30  1  1
 12 32  1  0
 13 16  2  0
 13 21  1  0
 14  5  1  0
 14 15  1  6
 14 20  1  0
 15 31  1  0
 15 40  1  0
 17 18  1  0
 17 23  1  0
 18 25  1  6
 18 26  1  0
 19 21  1  0
 19 35  1  0
 20 23  1  0
 21 22  2  0
 22 27  1  0
 23 24  1  1
 23 40  1  0
 24 26  1  0
 26 28  2  0
 27 34  2  0
 27 36  1  0
 28 29  1  0
 32 28  1  1
 29 38  1  0
 31 33  2  0
 31 37  1  0
 34 35  1  0
 35 38  1  1
 36 39  1  0
 36 43  2  0
 39 41  2  0
 39 42  1  0
 41 44  1  0
 42 45  2  0
 44 46  2  0
 45 46  1  0
M  END
$$$$

     RDKit          3D

 29 32  0  0  0  0  0  0  0  0999 V2000
   11.6836    6.0105   -4.8831 C   0  0  0  0  0  0  0  0  0  0  0  0
   11.1291    7.0732   -5.4395 C   0  0  0  0  0  0  0  0  0  0  0  0
   10.6954    7.0156   -6.8073 C   0  0  0  0  0  0  0  0  0  0  0  0
   10.2502    8.1187   -7.5536 C   0  0  2  0  0  0  0  0  0  0  0  0
   11.1205    8.4712   -4.9629 C   0  0  0  0  0  0  0  0  0  0  0  0
   10.8655    8.3511   -8.7960 C   0  0  0  0  0  0  0  0  0  0  0  0
   10.2922    7.8843   -9.9985 C   0  0  0  0  0  0  0  0  0  0  0  0
   10.4654    9.6993   -5.6120 C   0  0  0  0  0  0  0  0  0  0  0  0
   10.3510    9.5971   -7.0014 C   0  0  0  0  0  0  0  0  0  0  0  0
   12.2462    6.3351   -3.5020 C   0  0  0  0  0  0  0  0  0  0  0  0
   11.0471    7.5309  -11.1063 C   0  0  0  0  0  0  0  0  0  0  0  0
   11.7288    8.6923   -3.6518 C   0  0  0  0  0  0  0  0  0  0  0  0
   12.3991    7.7501  -11.1145 C   0  0  0  0  0  0  0  0  0  0  0  0
   12.3738    7.7580   -2.9599 C   0  0  0  0  0  0  0  0  0  0  0  0
   13.1285    8.5075  -10.1661 O   0  0  0  0  0  0  0  0  0  0  0  0
    9.0407    7.3775  -10.0973 N   0  0  0  0  0  0  0  0  0  0  0  0
    8.9787    6.9473  -11.4664 N   0  0  0  0  0  0  0  0  0  0  0  0
   13.1012    7.4459  -12.3707 C   0  0  0  0  0  0  0  0  0  0  0  0
   12.2395    6.9724  -13.2444 C   0  0  0  0  0  0  0  0  0  0  0  0
    7.7579    6.3689  -11.9282 C   0  0  2  0  0  0  0  0  0  0  0  0
    7.4759    5.0504  -11.8148 C   0  0  0  0  0  0  0  0  0  0  0  0
   12.9541    6.5945  -14.5510 O   0  0  0  0  0  0  0  0  0  0  0  0
   12.5717    5.3751  -15.0924 C   0  0  0  0  0  0  0  0  0  0  0  0
   10.2361    7.0379  -12.0113 C   0  0  0  0  0  0  0  0  0  0  0  0
   10.8757    6.6937  -13.2255 C   0  0  0  0  0  0  0  0  0  0  0  0
    6.5103    4.3889  -12.7033 C   0  0  0  0  0  0  0  0  0  0  0  0
    6.7043    3.0657  -13.1712 C   0  0  0  0  0  0  0  0  0  0  0  0
    7.5077    6.9278  -13.2364 C   0  0  0  0  0  0  0  0  0  0  0  0
    7.4010    8.4872  -13.0999 C   0  0  0  0  0  0  0  0  0  0  0  0
  1  2  2  0
  1 10  1  0
  2  3  1  0
  2  5  1  0
  3  4  1  0
  4  6  1  6
  4  9  1  0
  5  8  1  0
  5 12  2  0
  6  7  1  0
  7 11  1  0
  7 16  2  0
  8  9  1  0
 10 14  2  0
 11 13  2  0
 11 24  1  0
 12 14  1  0
 13 15  1  0
 13 18  1  0
 16 17  1  0
 17 20  1  0
 17 24  1  0
 18 19  2  0
 19 22  1  0
 19 25  1  0
 20 21  1  6
 20 28  1  0
 21 26  1  0
 22 23  1  0
 24 25  2  0
 26 27  1  0
 28 29  1  0
M  END
$$$$

     RDKit          3D

 32 36  0  0  0  0  0  0  0  0999 V2000
   12.7863    7.8241  -14.2109 C   0  0  0  0  0  0  0  0  0  0  0  0
   12.4233    7.7158  -13.0289 C   0  0  0  0  0  0  0  0  0  0  0  0
   12.9219    8.1949  -11.8668 C   0  0  0  0  0  0  0  0  0  0  0  0
   11.4275    6.6086  -12.7931 C   0  0  0  0  0  0  0  0  0  0  0  0
   10.3411    6.8404  -12.0679 C   0  0  0  0  0  0  0  0  0  0  0  0
   10.7226    7.4332  -10.7281 C   0  0  0  0  0  0  0  0  0  0  0  0
    9.0684    5.8539  -11.9851 C   0  0  0  0  0  0  0  0  0  0  0  0
    9.8080    7.4062   -9.6015 C   0  0  1  0  0  0  0  0  0  0  0  0
   11.9300    8.1400  -10.6702 C   0  0  0  0  0  0  0  0  0  0  0  0
   11.0289    6.0120  -14.2884 C   0  0  0  0  0  0  0  0  0  0  0  0
    9.9681    6.1425   -8.6941 C   0  0  0  0  0  0  0  0  0  0  0  0
   11.9646    6.5393  -15.2778 C   0  0  0  0  0  0  0  0  0  0  0  0
    9.7799    8.6458   -8.9051 C   0  0  0  0  0  0  0  0  0  0  0  0
   10.3186    4.8592  -14.6682 C   0  0  0  0  0  0  0  0  0  0  0  0
   10.2572    3.7867  -13.8865 C   0  0  1  0  0  0  0  0  0  0  0  0
    8.1840    6.1529  -12.9802 C   0  0  0  0  0  0  0  0  0  0  0  0
    8.9788    2.9888  -13.9279 C   0  0  0  0  0  0  0  0  0  0  0  0
   10.5404    8.5651   -7.5433 C   0  0  2  0  0  0  0  0  0  0  0  0
    9.1252    1.6963  -14.1301 O   0  0  0  0  0  0  0  0  0  0  0  0
    6.8473    5.4043  -12.6964 C   0  0  0  0  0  0  0  0  0  0  0  0
    7.8908    3.5177  -13.7211 N   0  0  0  0  0  0  0  0  0  0  0  0
   10.1332    7.5210   -6.6089 C   0  0  1  0  0  0  0  0  0  0  0  0
   11.5194    2.8993  -13.9918 C   0  0  0  0  0  0  0  0  0  0  0  0
   10.0708    6.2280   -7.2683 C   0  0  0  0  0  0  0  0  0  0  0  0
   11.1522    7.4502   -5.4668 C   0  0  1  0  0  0  0  0  0  0  0  0
    7.0710    3.6888  -12.6852 C   0  0  0  0  0  0  0  0  0  0  0  0
    8.8634    7.9716   -5.8899 C   0  0  0  0  0  0  0  0  0  0  0  0
   11.6672    8.7295   -5.0477 C   0  0  0  0  0  0  0  0  0  0  0  0
   12.8636    8.7968   -4.4088 C   0  0  0  0  0  0  0  0  0  0  0  0
   11.4313    9.7510   -6.2506 C   0  0  0  0  0  0  0  0  0  0  0  0
   10.6860    9.2904   -3.9014 C   0  0  0  0  0  0  0  0  0  0  0  0
   11.0789    6.4779   -4.5060 O   0  0  0  0  0  0  0  0  0  0  0  0
  1  2  1  0
  1 12  1  0
  2  3  2  0
  2  4  1  0
  3  9  1  0
  4  5  2  0
  4 10  1  0
  5  6  1  0
  5  7  1  0
  6  9  2  0
  7 16  1  0
  8  6  1  6
  8 11  1  0
  8 13  1  0
 10 12  2  0
 10 14  1  0
 11 24  1  0
 14 15  1  0
 15 17  1  0
 15 23  1  6
 16 20  1  0
 17 19  2  0
 17 21  1  0
 18 13  1  1
 18 22  1  0
 18 30  1  0
 20 26  1  0
 21 26  1  0
 22 24  1  0
 22 25  1  0
 22 27  1  1
 25 28  1  0
 25 32  1  1
 28 29  1  0
 28 30  1  0
 28 31  1  0
M  END
$$$$
