
     RDKit          3D

 27 28  0  0  0  0  0  0  0  0999 V2000
   10.4643    5.6729  -13.4076 C   0  0  0  0  0  0  0  0  0  0  0  0
    9.2179    4.4247   -8.2224 C   0  0  0  0  0  0  0  0  0  0  0  0
   12.3269    7.9808   -2.5370 C   0  0  0  0  0  0  0  0  0  0  0  0
   11.0186    8.1194   -9.4578 C   0  0  2  0  0  0  0  0  0  0  0  0
    6.8724    5.0064  -12.9962 C   0  0  0  0  0  0  0  0  0  0  0  0
    9.5775    6.2748  -10.3396 C   0  0  2  0  0  0  0  0  0  0  0  0
   11.0378   10.0165   -6.8959 C   0  0  0  0  0  0  0  0  0  0  0  0
    9.5022    6.7990   -7.9092 C   0  0  0  0  0  0  0  0  0  0  0  0
    9.6338    3.2760  -13.8087 C   0  0  0  0  0  0  0  0  0  0  0  0
    9.3214    4.6654  -13.3739 C   0  0  1  0  0  0  0  0  0  0  0  0
   11.1490   10.2896   -5.4018 C   0  0  0  0  0  0  0  0  0  0  0  0
    5.6858    4.4076  -12.5713 C   0  0  0  0  0  0  0  0  0  0  0  0
   10.2042    2.3595   -8.5110 O   0  0  0  0  0  0  0  0  0  0  0  0
    9.9401    9.0820   -7.2090 C   0  0  0  0  0  0  0  0  0  0  0  0
    8.5220    6.0103  -11.3806 C   0  0  0  0  0  0  0  0  0  0  0  0
    9.3391    3.2391   -9.1126 C   0  0  0  0  0  0  0  0  0  0  0  0
    9.5245    5.7101   -8.9767 C   0  0  1  0  0  0  0  0  0  0  0  0
    8.6172    3.0128  -10.2321 C   0  0  0  0  0  0  0  0  0  0  0  0
    8.2482    4.9395  -12.4214 C   0  0  1  0  0  0  0  0  0  0  0  0
   11.8709    6.8519   -3.5224 C   0  0  0  0  0  0  0  0  0  0  0  0
   11.4548    7.5517   -4.7945 C   0  0  0  0  0  0  0  0  0  0  0  0
   10.6094    7.2936  -10.6386 C   0  0  0  0  0  0  0  0  0  0  0  0
   12.2385    8.5752   -9.3207 O   0  0  0  0  0  0  0  0  0  0  0  0
   11.4997    9.0805   -4.5902 C   0  0  0  0  0  0  0  0  0  0  0  0
   11.9937    9.3228   -3.1833 C   0  0  0  0  0  0  0  0  0  0  0  0
   11.0194    2.9834  -14.2893 C   0  0  0  0  0  0  0  0  0  0  0  0
   10.0377    8.1329   -8.3441 C   0  0  1  0  0  0  0  0  0  0  0  0
 10  1  1  1
  2 16  1  0
 17  2  1  6
  3 20  1  0
  3 25  1  0
  4 22  1  0
  4 23  1  1
  4 27  1  0
  5 12  1  0
 19  5  1  6
  6 15  1  1
  6 17  1  0
  6 22  1  0
  7 11  1  0
  7 14  1  0
  8 17  1  0
  8 27  1  0
  9 10  1  0
  9 26  1  0
 10 19  1  0
 11 24  1  0
 13 16  1  0
 27 14  1  1
 15 19  1  0
 16 18  2  0
 20 21  1  0
 21 24  1  0
 24 25  1  0
M  END
$$$$

     RDKit          3D

 41 44  0  0  0  0  0  0  0  0999 V2000
    9.7732    8.3842  -10.5374 N   0  0  0  0  0  0  0  0  0  0  0  0
   12.4447    8.2440  -11.6141 C   0  0  1  0  0  0  0  0  0  0  0  0
   13.8737    8.4538  -11.9180 C   0  0  0  0  0  0  0  0  0  0  0  0
    8.1500    5.0414  -10.2877 N   0  0  0  0  0  0  0  0  0  0  0  0
   10.5961    6.7474   -8.9156 O   0  0  0  0  0  0  0  0  0  0  0  0
    7.8799    3.7165  -13.8005 N   0  0  0  0  0  0  0  0  0  0  0  0
   11.5839    8.0101   -7.1219 C   0  0  2  0  0  0  0  0  0  0  0  0
   11.0588    8.9807   -8.2546 C   0  0  0  0  0  0  0  0  0  0  0  0
   10.3475    7.6106  -12.7722 C   0  0  0  0  0  0  0  0  0  0  0  0
    8.9170    4.9138   -9.1078 C   0  0  0  0  0  0  0  0  0  0  0  0
    8.7440    5.6548   -7.8141 C   0  0  0  0  0  0  0  0  0  0  0  0
    8.1270    6.7894  -12.0970 C   0  0  0  0  0  0  0  0  0  0  0  0
    8.6267    3.0463  -14.7949 C   0  0  0  0  0  0  0  0  0  0  0  0
   11.0441    6.6204   -7.5000 C   0  0  0  0  0  0  0  0  0  0  0  0
   11.0139    4.0599  -14.8652 C   0  0  0  0  0  0  0  0  0  0  0  0
   13.3957    8.0089   -9.2683 C   0  0  0  0  0  0  0  0  0  0  0  0
    8.4967    4.3378  -12.7186 O   0  0  0  0  0  0  0  0  0  0  0  0
    6.2038    5.1889  -12.1939 C   0  0  0  0  0  0  0  0  0  0  0  0
   11.2977   10.8521   -4.6374 C   0  0  0  0  0  0  0  0  0  0  0  0
    9.9925    0.3956  -15.0591 C   0  0  0  0  0  0  0  0  0  0  0  0
   11.7680   10.3655   -3.4978 N   0  0  0  0  0  0  0  0  0  0  0  0
   11.9955    9.0171   -3.3927 C   0  0  0  0  0  0  0  0  0  0  0  0
    7.7444    5.2730  -11.8511 C   0  0  1  0  0  0  0  0  0  0  0  0
    9.5649    6.9325   -7.9270 C   0  0  0  0  0  0  0  0  0  0  0  0
   10.6457    1.6495  -15.4137 C   0  0  0  0  0  0  0  0  0  0  0  0
    8.9513    7.9092   -6.9179 C   0  0  0  0  0  0  0  0  0  0  0  0
   11.2317   10.0483   -5.7545 C   0  0  0  0  0  0  0  0  0  0  0  0
   11.7490    8.1395   -4.4971 C   0  0  0  0  0  0  0  0  0  0  0  0
   11.8108    6.7898   -4.2125 C   0  0  0  0  0  0  0  0  0  0  0  0
   12.3053    6.3831   -3.0072 C   0  0  0  0  0  0  0  0  0  0  0  0
   11.7579    7.3765  -12.5400 C   0  0  0  0  0  0  0  0  0  0  0  0
   12.2129    8.1773  -10.1987 C   0  0  2  0  0  0  0  0  0  0  0  0
    9.4996    7.2375  -11.5540 C   0  0  2  0  0  0  0  0  0  0  0  0
   12.5348    8.5966   -2.1654 C   0  0  0  0  0  0  0  0  0  0  0  0
   11.5217    8.7137   -5.7578 C   0  0  0  0  0  0  0  0  0  0  0  0
   10.8902    8.1048   -9.4866 C   0  0  2  0  0  0  0  0  0  0  0  0
    5.4314    4.0824  -12.6901 C   0  0  0  0  0  0  0  0  0  0  0  0
   12.6488    7.2386   -1.9920 C   0  0  0  0  0  0  0  0  0  0  0  0
   10.1091    2.8766  -14.6202 C   0  0  2  0  0  0  0  0  0  0  0  0
   12.3483    6.5396  -13.2489 O   0  0  0  0  0  0  0  0  0  0  0  0
    9.7099    3.9679   -9.0129 O   0  0  0  0  0  0  0  0  0  0  0  0
  1 33  1  0
  1 36  1  0
  2  3  1  1
  2 31  1  0
  2 32  1  0
  4 10  1  0
  4 23  1  0
  5 24  1  0
  5 36  1  0
  6 13  2  3
  6 17  1  0
  7  8  1  0
  7 14  1  1
  7 35  1  0
 36  8  1  1
  9 31  1  0
 33  9  1  6
 10 11  1  0
 10 41  2  0
 11 24  1  0
 12 23  1  0
 12 33  1  0
 13 39  1  0
 39 15  1  6
 32 16  1  6
 17 23  1  0
 23 18  1  1
 18 37  1  0
 19 21  2  0
 19 27  1  0
 20 25  1  0
 21 22  1  0
 22 28  2  0
 22 34  1  0
 24 26  1  0
 25 39  1  0
 27 35  2  0
 28 29  1  0
 28 35  1  0
 29 30  2  0
 30 38  1  0
 31 40  2  0
 32 36  1  0
 34 38  2  0
M  END
$$$$

     RDKit          3D

 26 28  0  0  0  0  0  0  0  0999 V2000
    5.3631    3.9674  -12.3792 C   0  0  0  0  0  0  0  0  0  0  0  0
   11.2667    9.2109   -7.0950 O   0  0  0  0  0  0  0  0  0  0  0  0
   10.3289    3.5573  -13.9491 C   0  0  0  0  0  0  0  0  0  0  0  0
   11.7607    8.8829   -8.4065 C   0  0  0  0  0  0  0  0  0  0  0  0
   13.0352    8.3506   -1.3949 O   0  0  0  0  0  0  0  0  0  0  0  0
    7.8171    3.4396  -13.5527 C   0  0  0  0  0  0  0  0  0  0  0  0
   10.4991    8.3630   -9.2019 C   0  0  2  0  0  0  0  0  0  0  0  0
   11.1569    8.0882   -5.0717 C   0  0  0  0  0  0  0  0  0  0  0  0
    9.3768    5.2104   -9.9676 C   0  0  0  0  0  0  0  0  0  0  0  0
    9.0772    4.0096  -13.2964 C   0  0  0  0  0  0  0  0  0  0  0  0
   10.5227    2.2860  -14.5337 C   0  0  0  0  0  0  0  0  0  0  0  0
   11.4710    6.9490   -4.4087 C   0  0  0  0  0  0  0  0  0  0  0  0
   12.0670    9.4054   -3.2467 C   0  0  0  0  0  0  0  0  0  0  0  0
   11.4724    9.3083   -4.5067 C   0  0  0  0  0  0  0  0  0  0  0  0
    9.8401    7.1712   -8.5485 N   0  0  0  0  0  0  0  0  0  0  0  0
    6.4487    3.7065  -13.3627 C   0  0  0  0  0  0  0  0  0  0  0  0
   12.4112    8.2418   -2.5768 C   0  0  0  0  0  0  0  0  0  0  0  0
    9.1444    8.4897   -6.5478 O   0  0  0  0  0  0  0  0  0  0  0  0
   10.5156    8.1133   -6.4568 C   0  0  1  0  0  0  0  0  0  0  0  0
    9.0093    5.9205   -8.7461 C   0  0  0  0  0  0  0  0  0  0  0  0
    9.2929    5.0419  -12.3493 N   0  0  0  0  0  0  0  0  0  0  0  0
    9.3803    5.9765  -11.2341 C   0  0  2  0  0  0  0  0  0  0  0  0
   11.0739    7.9195  -10.5705 C   0  0  0  0  0  0  0  0  0  0  0  0
   10.6222    6.8517   -7.2684 C   0  0  0  0  0  0  0  0  0  0  0  0
   12.0967    6.9938   -3.1422 C   0  0  0  0  0  0  0  0  0  0  0  0
   10.2222    7.1929  -11.5074 C   0  0  0  0  0  0  0  0  0  0  0  0
  1 16  1  0
  2  4  1  0
  2 19  1  0
  3 10  1  0
  3 11  1  0
  7  4  1  1
  5 17  1  0
  6 10  1  0
  6 16  1  0
  7 15  1  0
  7 23  1  0
  8 12  2  0
  8 14  1  0
  8 19  1  0
  9 20  1  0
  9 22  1  0
 10 21  1  0
 12 25  1  0
 13 14  1  0
 13 17  2  0
 15 20  1  0
 15 24  1  0
 17 25  1  0
 19 18  1  1
 19 24  1  0
 22 21  1  6
 22 26  1  0
 23 26  1  0
M  END
$$$$
